# ****************************************************************************
# *  Copyright: National ICT Australia,  2007 - 2010                         *
# *  Developed at the ATP lab, Networked Systems research theme              *
# *  Author(s): Athanassios Boulis, Yuriy Tselishchev                        *
# *  This file is distributed under the terms in the attached LICENSE file.  *
# *  If you do not find this file, copies can be found by writing to:        *
# *                                                                          *
# *      NICTA, Locked Bag 9013, Alexandria, NSW 1435, Australia             *
# *      Attention:  License Inquiry.                                        *
# *                                                                          *
# ***************************************************************************/

[General]

# ==============================================
# Always include the main Castalia.ini file
# ==============================================

include ../Parameters/Castalia.ini

sim-time-limit= 2592000s


SN.field_y = 10	# meters
SN.numNodes = 2

SN.node[0].xCoor = 0
SN.node[0].yCoor = 0
SN.node[1].xCoor = 1
SN.node[1].yCoor = 1



#Physical Process Selection

SN.physicalProcessName = "vwcPhysicalProcess"

SN.physicalProcess[*].scenario= 45  # 44 for Ngoundere scenario, 45 for varying vwc, 46 for no rain scenario       

SN.physicalProcess[*].sensingrate = 60 # in seconds
SN.physicalProcess[*].randvwcin = 1
SN.physicalProcess[*].vwc_seed  = 2         


#For Ngaoundere Scenario 
#SN.physicalProcess[*].scenario= 44
#SN.physicalProcess[*].days_1=60  
#SN.physicalProcess[*].days_2=90
#SN.physicalProcess[*].days_3=270
#SN.physicalProcess[*].days_4=300
#SN.physicalProcess[*].days_5=365





#Wireless Channel Properties

SN.wirelessChannel.randnoise= 1 
SN.wirelessChannel.packetlossprob=0.01
SN.wirelessChannel.distance_w=1
SN.wirelessChannel.sand_w=0.3 
SN.wirelessChannel.clay_w=0.5
SN.wirelessChannel.freq_w=433  #Freq in MHz




# Configuring Radio Transmit Power and Power consumption Parameters

SN.node[*].Communication.Radio.RadioParametersFile = "../Parameters/Radio/RFM69.txt"


SN.node[*].Communication.MACProtocolName = "BypassMAC"




# Selecting Application 
SN.node[*].ApplicationName = "ValuePropagationWUSN"



# Adaptive Communication (1 - Considering adaptive communication, 0 - Without adaptive communication)

SN.node[1].Application.selectmethod = 2
SN.node[1].Application.sendingrate = 60 # in seconds


